
     RDKit          3D

 65 68  0  0  0  0  0  0  0  0999 V2000
   27.6590   35.6030   19.7220 N   0  0  0  0  0  0  0  0  0  0  0  0
   27.9090   36.8300   20.1050 C   0  0  1  0  0  0  0  0  0  0  0  0
   27.6700   37.3180   21.3530 N   0  0  0  0  0  0  0  0  0  0  0  0
   27.1960   36.4660   22.3100 C   0  0  0  0  0  0  0  0  0  0  0  0
   26.9440   35.1580   22.0120 C   0  0  0  0  0  0  0  0  0  0  0  0
   27.1560   34.6960   20.6540 C   0  0  0  0  0  0  0  0  0  0  0  0
   26.9060   33.5380   20.2980 O   0  0  0  0  0  0  0  0  0  0  0  0
   28.3580   37.8780   19.0990 C   0  0  2  0  0  0  0  0  0  0  0  0
   27.7880   39.1890   19.6640 C   0  0  0  0  0  0  0  0  0  0  0  0
   28.0010   40.2960   18.7360 N   0  0  0  0  0  0  0  0  0  0  0  0
   27.2790   40.0270   17.4720 C   0  0  0  0  0  0  0  0  0  0  0  0
   27.8050   38.7600   16.8060 C   0  0  0  0  0  0  0  0  0  0  0  0
   27.7030   37.5700   17.7480 C   0  0  0  0  0  0  0  0  0  0  0  0
   27.0210   37.1450   23.5880 C   0  0  0  0  0  0  0  0  0  0  0  0
   27.4330   38.8040   23.8140 S   0  0  0  0  0  0  0  0  0  0  0  0
   26.9540   38.7780   25.4230 C   0  0  0  0  0  0  0  0  0  0  0  0
   26.4720   37.5790   25.7620 C   0  0  0  0  0  0  0  0  0  0  0  0
   26.5060   36.6370   24.7150 C   0  0  0  0  0  0  0  0  0  0  0  0
   27.6230   41.6020   19.3080 C   0  0  0  0  0  0  0  0  0  0  0  0
   27.8680   41.8150   20.7890 C   0  0  2  0  0  0  0  0  0  0  0  0
   26.8280   41.9680   21.6920 C   0  0  0  0  0  0  0  0  0  0  0  0
   26.9920   42.2680   22.9910 N   0  0  0  0  0  0  0  0  0  0  0  0
   28.2620   42.4570   23.3810 C   0  0  0  0  0  0  0  0  0  0  0  0
   29.3530   42.3970   22.5950 N   0  0  0  0  0  0  0  0  0  0  0  0
   29.1210   42.1040   21.3050 C   0  0  0  0  0  0  0  0  0  0  0  0
   28.4470   42.7880   24.6670 N   0  0  0  0  0  0  0  0  0  0  0  0
   29.7310   43.0480   25.2860 C   0  0  0  0  0  0  0  0  0  0  0  0
   27.8310   35.3128   18.7488 H   0  0  0  0  0  0  0  0  0  0  0  0
   26.8987   37.1332   19.7929 H   0  0  0  0  0  0  0  0  0  0  0  0
   27.8430   38.3096   21.5714 H   0  0  0  0  0  0  0  0  0  0  0  0
   26.1644   36.7280   22.0323 H   0  0  0  0  0  0  0  0  0  0  0  0
   26.5862   34.4662   22.7888 H   0  0  0  0  0  0  0  0  0  0  0  0
   25.9041   35.4153   21.7621 H   0  0  0  0  0  0  0  0  0  0  0  0
   26.1305   34.9955   20.3920 H   0  0  0  0  0  0  0  0  0  0  0  0
   26.7059   32.6112   20.0131 H   0  0  0  0  0  0  0  0  0  0  0  0
   29.4475   37.9152   18.9518 H   0  0  0  0  0  0  0  0  0  0  0  0
   27.2861   39.2810   20.6385 H   0  0  0  0  0  0  0  0  0  0  0  0
   28.7552   39.4036   20.1419 H   0  0  0  0  0  0  0  0  0  0  0  0
   26.4722   40.6560   17.0678 H   0  0  0  0  0  0  0  0  0  0  0  0
   28.0206   40.6243   16.9213 H   0  0  0  0  0  0  0  0  0  0  0  0
   28.2044   38.7129   15.7822 H   0  0  0  0  0  0  0  0  0  0  0  0
   28.8130   38.9770   17.1893 H   0  0  0  0  0  0  0  0  0  0  0  0
   27.2223   36.6140   17.4931 H   0  0  0  0  0  0  0  0  0  0  0  0
   26.7432   37.9517   18.1263 H   0  0  0  0  0  0  0  0  0  0  0  0
   28.0393   36.8519   23.8832 H   0  0  0  0  0  0  0  0  0  0  0  0
   27.0274   39.6355   26.1080 H   0  0  0  0  0  0  0  0  0  0  0  0
   25.9446   39.1003   25.1277 H   0  0  0  0  0  0  0  0  0  0  0  0
   26.0846   37.3487   26.7654 H   0  0  0  0  0  0  0  0  0  0  0  0
   25.4665   37.8939   25.4460 H   0  0  0  0  0  0  0  0  0  0  0  0
   26.1497   35.6009   24.8123 H   0  0  0  0  0  0  0  0  0  0  0  0
   25.5011   36.9529   24.3982 H   0  0  0  0  0  0  0  0  0  0  0  0
   27.1800   42.3918   18.6835 H   0  0  0  0  0  0  0  0  0  0  0  0
   26.6180   41.2139   19.5301 H   0  0  0  0  0  0  0  0  0  0  0  0
   27.9141   40.7525   20.5079 H   0  0  0  0  0  0  0  0  0  0  0  0
   25.8011   41.8351   21.3208 H   0  0  0  0  0  0  0  0  0  0  0  0
   26.8796   40.8960   21.9331 H   0  0  0  0  0  0  0  0  0  0  0  0
   26.1981   42.3474   23.6424 H   0  0  0  0  0  0  0  0  0  0  0  0
   28.3565   41.3820   23.5942 H   0  0  0  0  0  0  0  0  0  0  0  0
   30.3021   42.5645   22.9584 H   0  0  0  0  0  0  0  0  0  0  0  0
   29.9783   42.0928   20.6159 H   0  0  0  0  0  0  0  0  0  0  0  0
   28.9629   43.1713   21.0910 H   0  0  0  0  0  0  0  0  0  0  0  0
   27.6098   42.8635   25.2622 H   0  0  0  0  0  0  0  0  0  0  0  0
   30.7058   43.2454   25.7559 H   0  0  0  0  0  0  0  0  0  0  0  0
   29.8074   41.9791   25.5341 H   0  0  0  0  0  0  0  0  0  0  0  0
   30.2349   42.8657   24.3253 H   0  0  0  0  0  0  0  0  0  0  0  0
  2  1  1  0
  3  2  1  0
  4  3  1  0
  5  4  1  0
  6  5  1  0
  6  1  1  0
  7  6  1  0
  8  2  1  0
  9  8  1  0
 10  9  1  0
 11 10  1  0
 12 11  1  0
 13  8  1  0
 13 12  1  0
 14  4  1  0
 15 14  1  0
 16 15  1  0
 17 16  1  0
 18 17  1  0
 18 14  1  0
 19 10  1  0
 20 19  1  0
 21 20  1  0
 22 21  1  0
 23 22  1  0
 24 23  1  0
 25 20  1  0
 25 24  1  0
 26 23  1  0
 27 26  1  0
  1 28  1  0
  2 29  1  1
  3 30  1  0
  4 31  1  0
  5 32  1  0
  5 33  1  0
  6 34  1  0
  7 35  1  0
  8 36  1  6
  9 37  1  0
  9 38  1  0
 11 39  1  0
 11 40  1  0
 12 41  1  0
 12 42  1  0
 13 43  1  0
 13 44  1  0
 14 45  1  0
 16 46  1  0
 16 47  1  0
 17 48  1  0
 17 49  1  0
 18 50  1  0
 18 51  1  0
 19 52  1  0
 19 53  1  0
 20 54  1  1
 21 55  1  0
 21 56  1  0
 22 57  1  0
 23 58  1  0
 24 59  1  0
 25 60  1  0
 25 61  1  0
 26 62  1  0
 27 63  1  0
 27 64  1  0
 27 65  1  0
M  END
