
     RDKit          3D

 77 80  0  0  0  0  0  0  0  0999 V2000
   67.1740   72.6530  -73.1690 C   0  0  0  0  0  0  0  0  0  0  0  0
   68.0560   72.8570  -72.2170 O   0  0  0  0  0  0  0  0  0  0  0  0
   64.5760   70.2320  -69.9900 C   0  0  0  0  0  0  0  0  0  0  0  0
   65.2690   72.2530  -75.0750 N   0  0  0  0  0  0  0  0  0  0  0  0
   63.3910   69.6270  -69.5770 C   0  0  0  0  0  0  0  0  0  0  0  0
   62.3160   69.5770  -70.4820 C   0  0  1  0  0  0  0  0  0  0  0  0
   62.4650   70.0310  -71.7940 C   0  0  0  0  0  0  0  0  0  0  0  0
   65.0730   71.7580  -73.8450 C   0  0  0  0  0  0  0  0  0  0  0  0
   59.0090   66.8220  -71.1090 C   0  0  1  0  0  0  0  0  0  0  0  0
   58.6090   67.3990  -69.8460 C   0  0  2  0  0  0  0  0  0  0  0  0
   67.3720   73.1800  -74.4130 N   0  0  0  0  0  0  0  0  0  0  0  0
   58.6440   68.8610  -70.1450 C   0  0  1  0  0  0  0  0  0  0  0  0
   62.9180   69.6820  -75.3960 C   0  0  1  0  0  0  0  0  0  0  0  0
   61.0770   69.1640  -70.0200 N   0  0  0  0  0  0  0  0  0  0  0  0
   57.0680   66.1780  -77.2540 O   0  0  0  0  0  0  0  0  0  0  0  0
   62.7880   70.9350  -74.5530 C   0  0  2  0  0  0  0  0  0  0  0  0
   66.3940   72.9350  -75.2810 C   0  0  0  0  0  0  0  0  0  0  0  0
   58.9580   65.1130  -76.9050 O   0  0  0  0  0  0  0  0  0  0  0  0
   66.4600   73.4250  -76.5210 O   0  0  0  0  0  0  0  0  0  0  0  0
   62.0080   68.5110  -74.9970 C   0  0  1  0  0  0  0  0  0  0  0  0
   60.5950   68.5820  -75.5550 C   0  0  1  0  0  0  0  0  0  0  0  0
   66.0320   71.9100  -72.8140 C   0  0  0  0  0  0  0  0  0  0  0  0
   60.3710   67.5550  -76.6270 C   0  0  1  0  0  0  0  0  0  0  0  0
   64.7140   70.7670  -71.2820 C   0  0  0  0  0  0  0  0  0  0  0  0
   65.8910   71.4190  -71.5420 N   0  0  0  0  0  0  0  0  0  0  0  0
   58.9510   67.5160  -77.1630 C   0  0  1  0  0  0  0  0  0  0  0  0
   58.2840   66.1630  -77.0970 C   0  0  0  0  0  0  0  0  0  0  0  0
   63.2950   69.0260  -68.2010 C   0  0  2  0  0  0  0  0  0  0  0  0
   59.9160   69.0320  -70.8810 C   0  0  1  0  0  0  0  0  0  0  0  0
   60.0290   67.7710  -71.6860 C   0  0  2  0  0  0  0  0  0  0  0  0
   63.6540   70.6150  -72.2140 C   0  0  0  0  0  0  0  0  0  0  0  0
   63.8410   71.0940  -73.5330 N   0  0  0  0  0  0  0  0  0  0  0  0
   68.8340   73.3910  -72.5200 H   0  0  0  0  0  0  0  0  0  0  0  0
   65.4280   70.2740  -69.3160 H   0  0  0  0  0  0  0  0  0  0  0  0
   61.6430   69.9230  -72.4940 H   0  0  0  0  0  0  0  0  0  0  0  0
   59.3700   65.7990  -71.0210 H   0  0  0  0  0  0  0  0  0  0  0  0
   58.1720   66.7760  -71.8030 H   0  0  0  0  0  0  0  0  0  0  0  0
   59.2640   67.1370  -69.0180 H   0  0  0  0  0  0  0  0  0  0  0  0
   57.6190   67.0530  -69.5510 H   0  0  0  0  0  0  0  0  0  0  0  0
   57.7820   69.1450  -70.7440 H   0  0  0  0  0  0  0  0  0  0  0  0
   58.5810   69.4710  -69.2460 H   0  0  0  0  0  0  0  0  0  0  0  0
   62.7890   69.9700  -76.4380 H   0  0  0  0  0  0  0  0  0  0  0  0
   63.9490   69.3310  -75.3800 H   0  0  0  0  0  0  0  0  0  0  0  0
   60.8600   69.3830  -69.0530 H   0  0  0  0  0  0  0  0  0  0  0  0
   61.7840   71.0520  -74.1520 H   0  0  0  0  0  0  0  0  0  0  0  0
   62.8620   71.7870  -75.2240 H   0  0  0  0  0  0  0  0  0  0  0  0
   67.3040   73.9310  -76.6540 H   0  0  0  0  0  0  0  0  0  0  0  0
   62.4950   67.6020  -75.3490 H   0  0  0  0  0  0  0  0  0  0  0  0
   61.9690   68.3850  -73.9180 H   0  0  0  0  0  0  0  0  0  0  0  0
   59.8200   68.5000  -74.7960 H   0  0  0  0  0  0  0  0  0  0  0  0
   60.4540   69.5740  -75.9810 H   0  0  0  0  0  0  0  0  0  0  0  0
   61.0460   67.7450  -77.4610 H   0  0  0  0  0  0  0  0  0  0  0  0
   60.6790   66.5850  -76.2420 H   0  0  0  0  0  0  0  0  0  0  0  0
   58.3410   68.2500  -76.6390 H   0  0  0  0  0  0  0  0  0  0  0  0
   58.9200   67.7750  -78.2190 H   0  0  0  0  0  0  0  0  0  0  0  0
   62.7520   68.0830  -68.1550 H   0  0  0  0  0  0  0  0  0  0  0  0
   62.7610   69.6810  -67.5140 H   0  0  0  0  0  0  0  0  0  0  0  0
   64.2980   68.8800  -67.8020 H   0  0  0  0  0  0  0  0  0  0  0  0
   59.7960   69.8920  -71.5380 H   0  0  0  0  0  0  0  0  0  0  0  0
   59.8400   67.9530  -72.7410 H   0  0  0  0  0  0  0  0  0  0  0  0
   61.0190   67.3230  -71.6300 H   0  0  0  0  0  0  0  0  0  0  0  0
   66.6380   73.5652  -72.8679 H   0  0  0  0  0  0  0  0  0  0  0  0
   64.9452   69.2613  -70.3525 H   0  0  0  0  0  0  0  0  0  0  0  0
   64.5800   72.1121  -75.8275 H   0  0  0  0  0  0  0  0  0  0  0  0
   63.0284   70.5946  -69.1998 H   0  0  0  0  0  0  0  0  0  0  0  0
   62.0053   70.5846  -70.1686 H   0  0  0  0  0  0  0  0  0  0  0  0
   62.0852   71.0192  -71.4952 H   0  0  0  0  0  0  0  0  0  0  0  0
   65.5493   70.8142  -74.1489 H   0  0  0  0  0  0  0  0  0  0  0  0
   68.2113   73.7237  -74.6596 H   0  0  0  0  0  0  0  0  0  0  0  0
   56.0862   66.1901  -77.3808 H   0  0  0  0  0  0  0  0  0  0  0  0
   65.8884   73.8621  -74.9730 H   0  0  0  0  0  0  0  0  0  0  0  0
   59.4866   64.2896  -76.7544 H   0  0  0  0  0  0  0  0  0  0  0  0
   66.5311   70.9862  -73.1420 H   0  0  0  0  0  0  0  0  0  0  0  0
   64.2666   71.7115  -70.9387 H   0  0  0  0  0  0  0  0  0  0  0  0
   66.6234   71.5329  -70.8268 H   0  0  0  0  0  0  0  0  0  0  0  0
   58.1557   66.2793  -76.0107 H   0  0  0  0  0  0  0  0  0  0  0  0
   64.0418   69.6243  -72.4935 H   0  0  0  0  0  0  0  0  0  0  0  0
  2  1  1  0
  5  3  1  0
  6  5  1  0
  7  6  1  0
  8  4  1  0
 10  9  1  0
 11  1  1  0
 12 10  1  0
 14  6  1  0
 16 13  1  0
 17  4  1  0
 17 11  1  0
 19 17  1  0
 20 13  1  0
 21 20  1  0
 22  8  1  0
 22  1  1  0
 23 21  1  0
 24  3  1  0
 25 24  1  0
 25 22  1  0
 26 23  1  0
 27 18  1  0
 27 26  1  0
 27 15  1  0
 28  5  1  0
 29 12  1  0
 29 14  1  0
 30 29  1  0
 30  9  1  0
 31 24  1  0
 31  7  1  0
 32 31  1  0
 32 16  1  0
 32  8  1  0
 33  2  1  0
 34  3  1  0
 35  7  1  0
  9 36  1  1
 37  9  1  0
 10 38  1  1
 39 10  1  0
 12 40  1  6
 41 12  1  0
 13 42  1  6
 43 13  1  0
 44 14  1  0
 16 45  1  1
 46 16  1  0
 47 19  1  0
 20 48  1  6
 49 20  1  0
 21 50  1  1
 51 21  1  0
 23 52  1  6
 53 23  1  0
 26 54  1  1
 55 26  1  0
 28 56  1  6
 57 28  1  0
 58 28  1  0
 29 59  1  6
 30 60  1  6
 61 30  1  0
  1 62  1  0
  3 63  1  0
  4 64  1  0
  5 65  1  0
  6 66  1  6
  7 67  1  0
  8 68  1  0
 11 69  1  0
 15 70  1  0
 17 71  1  0
 18 72  1  0
 22 73  1  0
 24 74  1  0
 25 75  1  0
 27 76  1  0
 31 77  1  0
M  END
