
     RDKit          3D

 83 86  0  0  0  0  0  0  0  0999 V2000
    8.5920  -23.0880    5.6930 N   0  0  0  0  0  0  0  0  0  0  0  0
    7.9710  -18.6180    6.8600 C   0  0  0  0  0  0  0  0  0  0  0  0
    7.2550  -18.7230    7.8400 O   0  0  0  0  0  0  0  0  0  0  0  0
    7.8330  -19.4940    5.6470 C   0  0  0  0  0  0  0  0  0  0  0  0
    7.3040  -24.9560    3.2120 N   0  0  0  0  0  0  0  0  0  0  0  0
    8.9230  -17.7120    6.7470 O   0  0  0  0  0  0  0  0  0  0  0  0
    8.9290  -20.5490    5.4690 C   0  0  0  0  0  0  0  0  0  0  0  0
    8.3170  -26.9540    1.4380 N   0  0  0  0  0  0  0  0  0  0  0  0
    6.2070  -28.2230    6.3220 O   0  0  0  0  0  0  0  0  0  0  0  0
    8.7710  -21.7860    6.3700 C   0  0  0  0  0  0  0  0  0  0  0  0
    7.2460  -28.9380    4.4170 N   0  0  0  0  0  0  0  0  0  0  0  0
    8.3120  -29.5330    2.4740 O   0  0  0  0  0  0  0  0  0  0  0  0
    7.8560  -22.8970    4.4420 C   0  0  0  0  0  0  0  0  0  0  0  0
    6.8390  -26.6130    4.8120 N   0  0  0  0  0  0  0  0  0  0  0  0
    6.8050  -23.9320    4.1390 C   0  0  0  0  0  0  0  0  0  0  0  0
    7.7530  -24.5970    1.9190 C   0  0  0  0  0  0  0  0  0  0  0  0
    8.2490  -25.6280    1.0820 C   0  0  0  0  0  0  0  0  0  0  0  0
    7.8550  -27.2510    2.7000 C   0  0  0  0  0  0  0  0  0  0  0  0
    7.7890  -28.5780    3.1970 C   0  0  0  0  0  0  0  0  0  0  0  0
    6.8050  -27.9040    5.1350 C   0  0  0  0  0  0  0  0  0  0  0  0
    7.3450  -26.2980    3.6120 C   0  0  2  0  0  0  0  0  0  0  0  0
    8.6640  -25.3070   -0.2280 C   0  0  0  0  0  0  0  0  0  0  0  0
    8.5670  -24.0040   -0.7130 C   0  0  1  0  0  0  0  0  0  0  0  0
    8.8540  -23.7360   -2.1670 C   0  0  0  0  0  0  0  0  0  0  0  0
    8.0940  -22.9770    0.1400 C   0  0  0  0  0  0  0  0  0  0  0  0
    8.0250  -21.5440   -0.3250 C   0  0  0  0  0  0  0  0  0  0  0  0
    7.6890  -23.2890    1.4360 C   0  0  0  0  0  0  0  0  0  0  0  0
    9.8890  -23.7490    5.4570 C   0  0  0  0  0  0  0  0  0  0  0  0
    9.9100  -25.2260    5.7750 C   0  0  0  0  0  0  0  0  0  0  0  0
   10.3070  -26.1490    4.8150 C   0  0  0  0  0  0  0  0  0  0  0  0
   10.3580  -27.5050    5.1110 C   0  0  0  0  0  0  0  0  0  0  0  0
   10.0210  -27.9540    6.3730 C   0  0  0  0  0  0  0  0  0  0  0  0
    9.6320  -27.0460    7.3390 C   0  0  0  0  0  0  0  0  0  0  0  0
    9.5740  -25.6910    7.0420 C   0  0  0  0  0  0  0  0  0  0  0  0
    8.6777  -19.3375    7.2992 H   0  0  0  0  0  0  0  0  0  0  0  0
    6.6731  -18.8083    8.6364 H   0  0  0  0  0  0  0  0  0  0  0  0
    7.0014  -19.3850    4.9353 H   0  0  0  0  0  0  0  0  0  0  0  0
    8.4278  -18.7773    5.0617 H   0  0  0  0  0  0  0  0  0  0  0  0
    9.6375  -17.0320    6.6622 H   0  0  0  0  0  0  0  0  0  0  0  0
    9.7592  -20.4321    4.7569 H   0  0  0  0  0  0  0  0  0  0  0  0
    9.5289  -20.0574    6.2491 H   0  0  0  0  0  0  0  0  0  0  0  0
    8.6882  -27.6758    0.8038 H   0  0  0  0  0  0  0  0  0  0  0  0
    5.7739  -28.4540    7.1817 H   0  0  0  0  0  0  0  0  0  0  0  0
    8.7903  -21.7054    7.4669 H   0  0  0  0  0  0  0  0  0  0  0  0
    9.8613  -21.9315    6.3615 H   0  0  0  0  0  0  0  0  0  0  0  0
    7.1876  -29.9140    4.7410 H   0  0  0  0  0  0  0  0  0  0  0  0
    8.7081  -30.2564    1.9264 H   0  0  0  0  0  0  0  0  0  0  0  0
    8.0577  -22.0521    3.7671 H   0  0  0  0  0  0  0  0  0  0  0  0
    8.6048  -23.5014    3.9092 H   0  0  0  0  0  0  0  0  0  0  0  0
    6.4916  -25.8882    5.4562 H   0  0  0  0  0  0  0  0  0  0  0  0
    5.7888  -23.9223    4.5601 H   0  0  0  0  0  0  0  0  0  0  0  0
    6.4576  -23.3297    3.2866 H   0  0  0  0  0  0  0  0  0  0  0  0
    8.7655  -24.4324    2.3163 H   0  0  0  0  0  0  0  0  0  0  0  0
    9.2602  -25.4681    1.4843 H   0  0  0  0  0  0  0  0  0  0  0  0
    6.8338  -27.3489    2.3031 H   0  0  0  0  0  0  0  0  0  0  0  0
    6.8245  -28.7207    2.6878 H   0  0  0  0  0  0  0  0  0  0  0  0
    5.8311  -27.9669    4.6275 H   0  0  0  0  0  0  0  0  0  0  0  0
    6.3462  -26.4031    3.1633 H   0  0  0  0  0  0  0  0  0  0  0  0
    9.0703  -26.0973   -0.8763 H   0  0  0  0  0  0  0  0  0  0  0  0
    7.6517  -25.5213   -0.6012 H   0  0  0  0  0  0  0  0  0  0  0  0
    9.6271  -23.8356   -0.4727 H   0  0  0  0  0  0  0  0  0  0  0  0
    9.0636  -23.5403   -3.2290 H   0  0  0  0  0  0  0  0  0  0  0  0
    9.3071  -24.7247   -2.3318 H   0  0  0  0  0  0  0  0  0  0  0  0
    7.8698  -24.1467   -2.4365 H   0  0  0  0  0  0  0  0  0  0  0  0
    9.1178  -22.8091    0.5055 H   0  0  0  0  0  0  0  0  0  0  0  0
    7.9747  -20.4988   -0.6642 H   0  0  0  0  0  0  0  0  0  0  0  0
    6.9754  -21.8733   -0.3250 H   0  0  0  0  0  0  0  0  0  0  0  0
    7.9920  -21.2101    0.7226 H   0  0  0  0  0  0  0  0  0  0  0  0
    7.3118  -22.4897    2.0908 H   0  0  0  0  0  0  0  0  0  0  0  0
    6.6673  -23.4733    1.0724 H   0  0  0  0  0  0  0  0  0  0  0  0
   10.7705  -23.2100    5.0797 H   0  0  0  0  0  0  0  0  0  0  0  0
   10.1924  -23.5223    6.4897 H   0  0  0  0  0  0  0  0  0  0  0  0
    8.8692  -25.3150    5.4302 H   0  0  0  0  0  0  0  0  0  0  0  0
   10.5841  -25.8015    3.8088 H   0  0  0  0  0  0  0  0  0  0  0  0
   11.3518  -26.0386    5.1409 H   0  0  0  0  0  0  0  0  0  0  0  0
   10.6678  -28.2237    4.3380 H   0  0  0  0  0  0  0  0  0  0  0  0
   11.4053  -27.3961    5.4294 H   0  0  0  0  0  0  0  0  0  0  0  0
   10.0621  -29.0279    6.6075 H   0  0  0  0  0  0  0  0  0  0  0  0
   11.0681  -27.8444    6.6916 H   0  0  0  0  0  0  0  0  0  0  0  0
    9.3673  -27.3979    8.3470 H   0  0  0  0  0  0  0  0  0  0  0  0
   10.6798  -26.9321    7.6539 H   0  0  0  0  0  0  0  0  0  0  0  0
    9.2588  -24.9773    7.8174 H   0  0  0  0  0  0  0  0  0  0  0  0
   10.6203  -25.5762    7.3616 H   0  0  0  0  0  0  0  0  0  0  0  0
  3  2  1  0
  4  2  1  0
  6  2  1  0
  7  4  1  0
 10  1  1  0
 10  7  1  0
 13  1  1  0
 15 13  1  0
 15  5  1  0
 16  5  1  0
 17 16  1  0
 17  8  1  0
 18  8  1  0
 19 18  1  0
 19 12  1  0
 19 11  1  0
 20 11  1  0
 20  9  1  0
 20 14  1  0
 21 18  1  0
 21 14  1  0
 21  5  1  0
 22 17  1  0
 23 22  1  0
 24 23  1  0
 25 23  1  0
 26 25  1  0
 27 25  1  0
 27 16  1  0
 28  1  1  0
 29 28  1  0
 30 29  1  0
 31 30  1  0
 32 31  1  0
 33 32  1  0
 34 33  1  0
 34 29  1  0
  2 35  1  0
  3 36  1  0
  4 37  1  0
  4 38  1  0
  6 39  1  0
  7 40  1  0
  7 41  1  0
  8 42  1  0
  9 43  1  0
 10 44  1  0
 10 45  1  0
 11 46  1  0
 12 47  1  0
 13 48  1  0
 13 49  1  0
 14 50  1  0
 15 51  1  0
 15 52  1  0
 16 53  1  0
 17 54  1  0
 18 55  1  0
 19 56  1  0
 20 57  1  0
 21 58  1  1
 22 59  1  0
 22 60  1  0
 23 61  1  1
 24 62  1  0
 24 63  1  0
 24 64  1  0
 25 65  1  0
 26 66  1  0
 26 67  1  0
 26 68  1  0
 27 69  1  0
 27 70  1  0
 28 71  1  0
 28 72  1  0
 29 73  1  0
 30 74  1  0
 30 75  1  0
 31 76  1  0
 31 77  1  0
 32 78  1  0
 32 79  1  0
 33 80  1  0
 33 81  1  0
 34 82  1  0
 34 83  1  0
M  END
